WAY-254011
     RDKit          3D

 39 43  0  0  0  0  0  0  0  0999 V2000
   -3.0319    3.0454   -0.3078 C   0  0  0  0  0  0  0  0  0  0  0  0
   -3.9431    3.9776   -0.7711 C   0  0  0  0  0  0  0  0  0  0  0  0
   -5.2912    3.8126   -0.5337 C   0  0  0  0  0  0  0  0  0  0  0  0
   -5.7133    2.7081    0.1703 C   0  0  0  0  0  0  0  0  0  0  0  0
   -4.8041    1.7509    0.6487 C   0  0  0  0  0  0  0  0  0  0  0  0
   -3.4589    1.9369    0.3987 C   0  0  0  0  0  0  0  0  0  0  0  0
   -2.5786    0.9661    0.8873 C   0  0  0  0  0  0  0  0  0  0  0  0
   -3.0010   -0.1381    1.5899 C   0  0  0  0  0  0  0  0  0  0  0  0
   -4.3823   -0.2317    1.7889 C   0  0  0  0  0  0  0  0  0  0  0  0
   -5.2536    0.6828    1.3331 N   0  0  0  0  0  0  0  0  0  0  0  0
   -2.0860   -1.1570    2.0924 C   0  0  0  0  0  0  0  0  0  0  0  0
   -1.7363   -2.0970    0.9983 C   0  0  0  0  0  0  0  0  0  0  0  0
   -2.0746   -1.8587   -0.3113 C   0  0  0  0  0  0  0  0  0  0  0  0
   -1.7450   -2.7354   -1.3298 C   0  0  0  0  0  0  0  0  0  0  0  0
   -1.0524   -3.8966   -1.0462 C   0  0  0  0  0  0  0  0  0  0  0  0
   -0.6947   -4.1672    0.2727 C   0  0  0  0  0  0  0  0  0  0  0  0
   -1.0425   -3.2744    1.2331 C   0  0  0  0  0  0  0  0  0  0  0  0
   -1.1735    1.2083    0.6379 C   0  0  0  0  0  0  0  0  0  0  0  0
   -0.6035    1.1138   -0.5969 C   0  0  0  0  0  0  0  0  0  0  0  0
    0.7379    1.3523   -0.7474 C   0  0  0  0  0  0  0  0  0  0  0  0
    1.5698    1.6893    0.2922 C   0  0  0  0  0  0  0  0  0  0  0  0
    0.9808    1.7810    1.5339 C   0  0  0  0  0  0  0  0  0  0  0  0
   -0.3649    1.5438    1.6959 C   0  0  0  0  0  0  0  0  0  0  0  0
    1.2779    1.2471   -2.0253 O   0  0  0  0  0  0  0  0  0  0  0  0
    2.6109    1.4514   -2.3524 C   0  0  0  0  0  0  0  0  0  0  0  0
    3.5647    0.5354   -1.6860 C   0  0  0  0  0  0  0  0  0  0  0  0
    4.8925    0.8960   -1.5238 C   0  0  0  0  0  0  0  0  0  0  0  0
    5.7926    0.0444   -0.9119 C   0  0  0  0  0  0  0  0  0  0  0  0
    5.3990   -1.1866   -0.4453 C   0  0  0  0  0  0  0  0  0  0  0  0
    4.0888   -1.5589   -0.5976 C   0  0  0  0  0  0  0  0  0  0  0  0
    3.1937   -0.7048   -1.2093 C   0  0  0  0  0  0  0  0  0  0  0  0
    6.3870   -2.1037    0.2190 C   0  0  0  0  0  0  0  0  0  0  0  0
    7.0702   -2.9089   -0.8082 C   0  0  0  0  0  0  0  0  0  0  0  0
    6.7754   -2.7535   -2.0193 O   0  0  0  0  0  0  0  0  0  0  0  0
    8.0411   -3.8462   -0.4857 O   0  0  0  0  0  0  0  0  0  0  0  0
   -7.1610    2.5323    0.4254 C   0  0  0  0  0  0  0  0  0  0  0  0
   -7.6439    1.3571   -0.1177 F   0  0  0  0  0  0  0  0  0  0  0  0
   -7.3394    2.5931    1.7927 F   0  0  0  0  0  0  0  0  0  0  0  0
   -7.8422    3.5988   -0.1152 F   0  0  0  0  0  0  0  0  0  0  0  0
  1  2  2  0
  2  3  1  0
  3  4  2  0
  4  5  1  0
  5  6  2  0
  6  7  1  0
  7  8  2  0
  8  9  1  0
  9 10  2  0
  8 11  1  0
 11 12  1  0
 12 13  2  0
 13 14  1  0
 14 15  2  0
 15 16  1  0
 16 17  2  0
  7 18  1  0
 18 19  2  0
 19 20  1  0
 20 21  2  0
 21 22  1  0
 22 23  2  0
 20 24  1  0
 24 25  1  0
 25 26  1  0
 26 27  2  0
 27 28  1  0
 28 29  2  0
 29 30  1  0
 30 31  2  0
 29 32  1  0
 32 33  1  0
 33 34  2  0
 33 35  1  0
  4 36  1  0
 36 37  1  0
 36 38  1  0
 36 39  1  0
  6  1  1  0
 10  5  1  0
 17 12  1  0
 23 18  1  0
 31 26  1  0
M  END
$$$$
z1
     RDKit          3D

 33 35  0  0  0  0  0  0  0  0999 V2000
    3.9486   -1.2739    2.1561 C   0  0  0  0  0  0  0  0  0  0  0  0
    5.2190   -0.8745    1.7107 C   0  0  0  0  0  0  0  0  0  0  0  0
    5.4102    0.0977    0.7896 C   0  0  0  0  0  0  0  0  0  0  0  0
    4.2584    0.7046    0.2892 C   0  0  0  0  0  0  0  0  0  0  0  0
    2.9915    0.3584    0.6849 C   0  0  0  0  0  0  0  0  0  0  0  0
    2.8547   -0.6295    1.6157 C   0  0  0  0  0  0  0  0  0  0  0  0
    1.8070    1.0518    0.0943 C   0  0  0  0  0  0  0  0  0  0  0  0
    1.5002    0.3109   -1.1887 C   0  0  0  0  0  0  0  0  0  0  0  0
    0.4166    0.8722   -2.0132 C   0  0  0  0  0  0  0  0  0  0  0  0
   -0.9472    0.9741   -1.4968 C   0  0  0  0  0  0  0  0  0  0  0  0
   -1.6213   -0.2612   -1.1392 N   0  0  0  0  0  0  0  0  0  0  0  0
   -3.0618   -0.1731   -0.9496 C   0  0  0  0  0  0  0  0  0  0  0  0
   -3.6492   -0.2511    0.1751 C   0  0  0  0  0  0  0  0  0  0  0  0
   -5.3927   -0.0712   -0.1428 S   0  0  0  0  0  6  0  0  0  0  0  0
   -5.2808   -0.0043   -1.8528 N   0  0  0  0  0  0  0  0  0  0  0  0
   -3.8969   -0.0329   -2.1274 C   0  0  0  0  0  0  0  0  0  0  0  0
   -3.4618    0.0589   -3.3201 O   0  0  0  0  0  0  0  0  0  0  0  0
   -6.3478    0.0582   -2.8288 C   0  0  0  0  0  0  0  0  0  0  0  0
   -7.2023   -1.1955   -2.8233 C   0  0  0  0  0  0  0  0  0  0  0  0
   -7.2133    1.2703   -2.6603 C   0  0  0  0  0  0  0  0  0  0  0  0
   -6.1722   -1.2159    0.3609 O   0  0  0  0  0  0  0  0  0  0  0  0
   -5.8692    1.2417    0.4304 O   0  0  0  0  0  0  0  0  0  0  0  0
   -3.1982   -0.4684    1.5665 C   0  0  0  0  0  0  0  0  0  0  0  0
   -2.2025   -1.3520    1.9045 C   0  0  0  0  0  0  0  0  0  0  0  0
   -1.8475   -1.5202    3.2259 C   0  0  0  0  0  0  0  0  0  0  0  0
   -2.4649   -0.8236    4.2438 C   0  0  0  0  0  0  0  0  0  0  0  0
   -3.4699    0.0669    3.8923 C   0  0  0  0  0  0  0  0  0  0  0  0
   -3.8343    0.2459    2.5839 C   0  0  0  0  0  0  0  0  0  0  0  0
    6.7131    0.4716    0.3033 C   0  0  0  0  0  0  0  0  0  0  0  0
    6.6643    1.5143   -0.5064 O   0  0  0  0  0  0  0  0  0  0  0  0
    7.9767   -0.0345    0.5119 N   0  0  0  0  0  0  0  0  0  0  0  0
    9.1117    0.6568   -0.1776 C   0  0  0  0  0  0  0  0  0  0  0  0
    8.3402   -1.1661    1.2943 C   0  0  0  0  0  0  0  0  0  0  0  0
  1  2  2  0
  2  3  1  0
  3  4  2  0
  4  5  1  0
  5  6  2  0
  5  7  1  0
  7  8  1  0
  8  9  1  0
  9 10  1  0
 10 11  1  0
 11 12  1  0
 12 13  2  0
 13 14  1  0
 14 15  1  0
 15 16  1  0
 16 17  2  0
 15 18  1  0
 18 19  1  0
 18 20  1  0
 14 21  2  0
 14 22  2  0
 13 23  1  0
 23 24  2  0
 24 25  1  0
 25 26  2  0
 26 27  1  0
 27 28  2  0
  3 29  1  0
 29 30  2  0
 29 31  1  0
 31 32  1  0
 31 33  1  0
  6  1  1  0
 16 12  1  0
 28 23  1  0
M  END
$$$$
z2
     RDKit          3D

 33 35  0  0  0  0  0  0  0  0999 V2000
    4.8699    1.2513   -2.1572 C   0  0  0  0  0  0  0  0  0  0  0  0
    6.0931    1.0786   -1.5803 C   0  0  0  0  0  0  0  0  0  0  0  0
    6.2445    0.1055   -0.6166 C   0  0  0  0  0  0  0  0  0  0  0  0
    5.2135   -0.6420   -0.2658 N   0  0  0  0  0  0  0  0  0  0  0  0
    3.9526   -0.5268   -0.8000 C   0  0  0  0  0  0  0  0  0  0  0  0
    3.8151    0.4342   -1.7485 C   0  0  0  0  0  0  0  0  0  0  0  0
    2.8839   -1.4542   -0.3360 C   0  0  0  0  0  0  0  0  0  0  0  0
    2.3301   -0.9376    0.9444 C   0  0  0  0  0  0  0  0  0  0  0  0
    1.6366    0.3268    0.9605 C   0  0  0  0  0  0  0  0  0  0  0  0
    0.3274    0.5365    0.3083 C   0  0  2  0  0  0  0  0  0  0  0  0
   -0.7103   -0.3041    0.7786 N   0  0  0  0  0  0  0  0  0  0  0  0
   -2.0324   -0.2861    0.2639 C   0  0  0  0  0  0  0  0  0  0  0  0
   -3.0261    0.2148    0.9501 C   0  0  0  0  0  0  0  0  0  0  0  0
   -4.5089    0.0558   -0.0231 S   0  0  0  0  0  6  0  0  0  0  0  0
   -3.7780   -0.7580   -1.3366 N   0  0  0  0  0  0  0  0  0  0  0  0
   -2.4076   -0.8363   -1.0061 C   0  0  0  0  0  0  0  0  0  0  0  0
   -1.5861   -1.3764   -1.8200 O   0  0  0  0  0  0  0  0  0  0  0  0
   -4.4256   -1.2512   -2.5481 C   0  0  0  0  0  0  0  0  0  0  0  0
   -5.5200   -2.1943   -2.1668 C   0  0  0  0  0  0  0  0  0  0  0  0
   -4.9984   -0.1175   -3.3592 C   0  0  0  0  0  0  0  0  0  0  0  0
   -5.5172   -0.7588    0.6950 O   0  0  0  0  0  0  0  0  0  0  0  0
   -5.0200    1.4158   -0.3960 O   0  0  0  0  0  0  0  0  0  0  0  0
   -3.0936    0.8276    2.2564 C   0  0  0  0  0  0  0  0  0  0  0  0
   -4.0647    0.2915    3.1142 C   0  0  0  0  0  0  0  0  0  0  0  0
   -4.2681    0.7855    4.3875 C   0  0  0  0  0  0  0  0  0  0  0  0
   -3.4975    1.8355    4.8329 C   0  0  0  0  0  0  0  0  0  0  0  0
   -2.5495    2.3700    4.0148 C   0  0  0  0  0  0  0  0  0  0  0  0
   -2.3661    1.8624    2.7540 C   0  0  0  0  0  0  0  0  0  0  0  0
    0.3224    0.8463   -1.1467 C   0  0  0  0  0  0  0  0  0  0  0  0
    7.8378   -0.0733    0.1098 S   0  0  0  0  0  6  0  0  0  0  0  0
    7.7778    0.1861    1.5898 O   0  0  0  0  0  0  0  0  0  0  0  0
    8.4753   -1.6582   -0.1409 N   0  0  0  0  0  0  0  0  0  0  0  0
    8.7874    0.9034   -0.5202 O   0  0  0  0  0  0  0  0  0  0  0  0
  1  2  2  0
  2  3  1  0
  3  4  2  0
  4  5  1  0
  5  6  2  0
  5  7  1  0
  7  8  1  0
  8  9  1  0
  9 10  1  0
 10 11  1  0
 11 12  1  0
 12 13  2  0
 13 14  1  0
 14 15  1  0
 15 16  1  0
 16 17  2  0
 15 18  1  0
 18 19  1  0
 18 20  1  0
 14 21  2  0
 14 22  2  0
 13 23  1  0
 23 24  2  0
 24 25  1  0
 25 26  2  0
 26 27  1  0
 27 28  2  0
 10 29  1  6
  3 30  1  0
 30 31  2  0
 30 32  1  0
 30 33  2  0
  6  1  1  0
 16 12  1  0
 28 23  1  0
M  END
$$$$
z3
     RDKit          3D

 32 34  0  0  0  0  0  0  0  0999 V2000
    4.5562   -2.2312    0.4914 C   0  0  0  0  0  0  0  0  0  0  0  0
    5.7674   -1.8443    0.9920 C   0  0  0  0  0  0  0  0  0  0  0  0
    6.2499   -0.5585    0.7532 C   0  0  0  0  0  0  0  0  0  0  0  0
    5.4901    0.2485    0.0322 N   0  0  0  0  0  0  0  0  0  0  0  0
    4.2879   -0.0442   -0.4998 C   0  0  0  0  0  0  0  0  0  0  0  0
    3.8134   -1.3198   -0.2607 C   0  0  0  0  0  0  0  0  0  0  0  0
    3.6194    0.9814   -1.3039 C   0  0  0  0  0  0  0  0  0  0  0  0
    2.1987    0.7372   -1.6437 C   0  0  0  0  0  0  0  0  0  0  0  0
    1.2879    0.7338   -0.4445 C   0  0  0  0  0  0  0  0  0  0  0  0
   -0.1535    0.4097   -0.8579 C   0  0  0  0  0  0  0  0  0  0  0  0
   -1.0267    0.4561    0.2791 N   0  0  0  0  0  0  0  0  0  0  0  0
   -2.4101    0.0612    0.1159 C   0  0  0  0  0  0  0  0  0  0  0  0
   -3.4182    0.8728    0.1593 C   0  0  0  0  0  0  0  0  0  0  0  0
   -4.8796   -0.0710   -0.0979 S   0  0  0  0  0  6  0  0  0  0  0  0
   -4.1186   -1.6215   -0.1365 N   0  0  0  0  0  0  0  0  0  0  0  0
   -2.7353   -1.3346   -0.0487 C   0  0  0  0  0  0  0  0  0  0  0  0
   -1.8925   -2.3004   -0.1183 O   0  0  0  0  0  0  0  0  0  0  0  0
   -4.7534   -2.9327   -0.2328 C   0  0  0  0  0  0  0  0  0  0  0  0
   -4.5139   -3.7123    1.0549 C   0  0  0  0  0  0  0  0  0  0  0  0
   -4.2741   -3.7271   -1.4211 C   0  0  0  0  0  0  0  0  0  0  0  0
   -5.5648    0.2664   -1.3810 O   0  0  0  0  0  0  0  0  0  0  0  0
   -5.7932   -0.0331    1.0898 O   0  0  0  0  0  0  0  0  0  0  0  0
   -3.4457    2.3018    0.3735 C   0  0  0  0  0  0  0  0  0  0  0  0
   -2.5723    3.1839   -0.2279 C   0  0  0  0  0  0  0  0  0  0  0  0
   -2.5882    4.5456   -0.0168 C   0  0  0  0  0  0  0  0  0  0  0  0
   -3.5213    5.0654    0.8391 C   0  0  0  0  0  0  0  0  0  0  0  0
   -4.4149    4.1948    1.4602 C   0  0  0  0  0  0  0  0  0  0  0  0
   -4.3875    2.8427    1.2396 C   0  0  0  0  0  0  0  0  0  0  0  0
    7.8063   -0.1168    1.4323 S   0  0  0  0  0  6  0  0  0  0  0  0
    8.3917   -1.2861    2.1613 O   0  0  0  0  0  0  0  0  0  0  0  0
    8.8243    0.3217    0.0822 N   0  0  0  0  0  0  0  0  0  0  0  0
    7.6782    1.0562    2.3613 O   0  0  0  0  0  0  0  0  0  0  0  0
  1  2  2  0
  2  3  1  0
  3  4  2  0
  4  5  1  0
  5  6  2  0
  5  7  1  0
  7  8  1  0
  8  9  1  0
  9 10  1  0
 10 11  1  0
 11 12  1  0
 12 13  2  0
 13 14  1  0
 14 15  1  0
 15 16  1  0
 16 17  2  0
 15 18  1  0
 18 19  1  0
 18 20  1  0
 14 21  2  0
 14 22  2  0
 13 23  1  0
 23 24  2  0
 24 25  1  0
 25 26  2  0
 26 27  1  0
 27 28  2  0
  3 29  1  0
 29 30  2  0
 29 31  1  0
 29 32  2  0
  6  1  1  0
 16 12  1  0
 28 23  1  0
M  END
$$$$
z4
     RDKit          3D

 36 39  0  0  0  0  0  0  0  0999 V2000
    6.2529    0.3512   -1.0289 C   0  0  0  0  0  0  0  0  0  0  0  0
    6.8986    0.8281    0.0869 C   0  0  0  0  0  0  0  0  0  0  0  0
    6.1326    1.0869    1.2029 C   0  0  0  0  0  0  0  0  0  0  0  0
    4.7992    0.8865    1.2211 N   0  0  0  0  0  0  0  0  0  0  0  0
    4.1214    0.4143    0.1353 C   0  0  0  0  0  0  0  0  0  0  0  0
    4.8743    0.1516   -0.9870 C   0  0  0  0  0  0  0  0  0  0  0  0
    4.0722   -0.4554   -2.4136 Cl  0  0  0  0  0  0  0  0  0  0  0  0
    2.7151    0.2198    0.2059 N   0  0  0  0  0  0  0  0  0  0  0  0
    1.7762    0.9002   -0.6705 C   0  0  0  0  0  0  0  0  0  0  0  0
    0.3865    0.7150   -0.1029 C   0  0  0  0  0  0  0  0  0  0  0  0
   -0.0109   -0.7327   -0.0120 C   0  0  0  0  0  0  0  0  0  0  0  0
    1.1535   -1.5746    0.4353 C   0  0  0  0  0  0  0  0  0  0  0  0
    2.1264   -0.6969    1.1912 C   0  0  0  0  0  0  0  0  0  0  0  0
   -1.1820   -0.9381    0.8011 N   0  0  0  0  0  0  0  0  0  0  0  0
   -2.4721   -0.3836    0.4209 C   0  0  0  0  0  0  0  0  0  0  0  0
   -3.2919   -1.0804   -0.3273 C   0  0  0  0  0  0  0  0  0  0  0  0
   -4.7162   -0.0690   -0.5537 S   0  0  0  0  0  6  0  0  0  0  0  0
   -4.1792    1.2883    0.3481 N   0  0  0  0  0  0  0  0  0  0  0  0
   -2.9034    0.9159    0.8205 C   0  0  0  0  0  0  0  0  0  0  0  0
   -2.2301    1.7255    1.5491 O   0  0  0  0  0  0  0  0  0  0  0  0
   -4.8964    2.5004    0.5455 C   0  0  0  0  0  0  0  0  0  0  0  0
   -5.1687    2.7798    2.0218 C   0  0  0  0  0  0  0  0  0  0  0  0
   -6.2146    2.4534   -0.1720 C   0  0  0  0  0  0  0  0  0  0  0  0
   -4.1567    3.7170    0.0224 C   0  0  0  0  0  0  0  0  0  0  0  0
   -5.9246   -0.7144    0.0582 O   0  0  0  0  0  0  0  0  0  0  0  0
   -4.9216    0.2474   -1.9965 O   0  0  0  0  0  0  0  0  0  0  0  0
   -3.1356   -2.4210   -0.8880 C   0  0  0  0  0  0  0  0  0  0  0  0
   -2.5661   -3.4886   -0.2440 C   0  0  0  0  0  0  0  0  0  0  0  0
   -2.4464   -4.7298   -0.8312 C   0  0  0  0  0  0  0  0  0  0  0  0
   -2.9097   -4.9423   -2.1227 C   0  0  0  0  0  0  0  0  0  0  0  0
   -3.4825   -3.8775   -2.7772 C   0  0  0  0  0  0  0  0  0  0  0  0
   -3.5948   -2.6416   -2.1754 C   0  0  0  0  0  0  0  0  0  0  0  0
    8.3659    1.0585    0.0926 C   0  0  0  0  0  0  0  0  0  0  0  0
    9.1134   -0.1481    0.4907 C   0  0  0  0  0  0  0  0  0  0  0  0
    8.4713   -1.2060    0.7698 O   0  0  0  0  0  0  0  0  0  0  0  0
   10.4750   -0.2132    0.5831 O   0  0  0  0  0  0  0  0  0  0  0  0
  1  2  2  0
  2  3  1  0
  3  4  2  0
  4  5  1  0
  5  6  2  0
  6  7  1  0
  5  8  1  0
  8  9  1  0
  9 10  1  0
 10 11  1  0
 11 12  1  0
 12 13  1  0
 11 14  1  0
 14 15  1  0
 15 16  2  0
 16 17  1  0
 17 18  1  0
 18 19  1  0
 19 20  2  0
 18 21  1  0
 21 22  1  0
 21 23  1  0
 21 24  1  0
 17 25  2  0
 17 26  2  0
 16 27  1  0
 27 28  2  0
 28 29  1  0
 29 30  2  0
 30 31  1  0
 31 32  2  0
  2 33  1  0
 33 34  1  0
 34 35  2  0
 34 36  1  0
  6  1  1  0
 13  8  1  0
 19 15  1  0
 32 27  1  0
M  END
$$$$
