
     RDKit          3D

 39 43  0  0  0  0  0  0  0  0999 V2000
   -3.0135   -2.9879    0.8182 C   0  0  0  0  0  0  0  0  0  0  0  0
   -3.9500   -3.8432    1.3542 C   0  0  0  0  0  0  0  0  0  0  0  0
   -5.2823   -3.7389    0.9957 C   0  0  0  0  0  0  0  0  0  0  0  0
   -5.7334   -2.7921    0.1018 C   0  0  0  0  0  0  0  0  0  0  0  0
   -4.7998   -1.9363   -0.4349 C   0  0  0  0  0  0  0  0  0  0  0  0
   -3.4713   -2.0338   -0.0835 C   0  0  0  0  0  0  0  0  0  0  0  0
   -2.5081   -1.1694   -0.6214 C   0  0  0  0  0  0  0  0  0  0  0  0
   -2.9632   -0.2253   -1.5123 C   0  0  0  0  0  0  0  0  0  0  0  0
   -4.3184   -0.1252   -1.8723 C   0  0  0  0  0  0  0  0  0  0  0  0
   -5.1578   -0.9850   -1.3138 N   0  0  0  0  0  0  0  0  0  0  0  0
   -1.9770    0.7323   -2.0777 C   0  0  0  0  0  0  0  0  0  0  0  0
   -1.7423    1.8560   -1.1412 C   0  0  0  0  0  0  0  0  0  0  0  0
   -1.0972    3.0001   -1.6108 C   0  0  0  0  0  0  0  0  0  0  0  0
   -0.8561    4.1016   -0.8236 C   0  0  0  0  0  0  0  0  0  0  0  0
   -1.2866    4.0366    0.4900 C   0  0  0  0  0  0  0  0  0  0  0  0
   -1.9251    2.9197    0.9767 C   0  0  0  0  0  0  0  0  0  0  0  0
   -2.1540    1.8291    0.1636 C   0  0  0  0  0  0  0  0  0  0  0  0
   -1.1107   -1.3197   -0.2696 C   0  0  0  0  0  0  0  0  0  0  0  0
   -0.5099   -0.9621    0.8904 C   0  0  0  0  0  0  0  0  0  0  0  0
    0.8344   -1.1387    1.1503 C   0  0  0  0  0  0  0  0  0  0  0  0
    1.5981   -1.7159    0.1598 C   0  0  0  0  0  0  0  0  0  0  0  0
    1.0467   -2.1086   -1.0582 C   0  0  0  0  0  0  0  0  0  0  0  0
   -0.2935   -1.9020   -1.2458 C   0  0  0  0  0  0  0  0  0  0  0  0
    1.3587   -0.7338    2.3826 O   0  0  0  0  0  0  0  0  0  0  0  0
    2.7041   -0.8688    2.7194 C   0  0  0  0  0  0  0  0  0  0  0  0
    3.6059   -0.1155    1.8121 C   0  0  0  0  0  0  0  0  0  0  0  0
    3.1937    0.8760    0.9512 C   0  0  0  0  0  0  0  0  0  0  0  0
    4.1091    1.5236    0.1335 C   0  0  0  0  0  0  0  0  0  0  0  0
    5.4608    1.2054    0.1470 C   0  0  0  0  0  0  0  0  0  0  0  0
    5.8623    0.2189    1.0055 C   0  0  0  0  0  0  0  0  0  0  0  0
    4.9464   -0.4296    1.8241 C   0  0  0  0  0  0  0  0  0  0  0  0
    6.4354    1.8948   -0.7286 C   0  0  0  0  0  0  0  0  0  0  0  0
    7.0011    3.0896   -0.0577 C   0  0  0  0  0  0  0  0  0  0  0  0
    6.6557    3.4191    1.1014 O   0  0  0  0  0  0  0  0  0  0  0  0
    7.9335    3.8479   -0.7449 O   0  0  0  0  0  0  0  0  0  0  0  0
   -7.1810   -2.7120   -0.2564 C   0  0  0  0  0  0  0  0  0  0  0  0
   -7.9119   -3.6638    0.4003 F   0  0  0  0  0  0  0  0  0  0  0  0
   -7.6249   -1.4472    0.1363 F   0  0  0  0  0  0  0  0  0  0  0  0
   -7.3903   -2.8688   -1.6118 F   0  0  0  0  0  0  0  0  0  0  0  0
  1  2  2  0
  2  3  1  0
  3  4  2  0
  4  5  1  0
  5  6  2  0
  6  7  1  0
  7  8  2  0
  8  9  1  0
  9 10  2  0
  8 11  1  0
 11 12  1  0
 12 13  2  0
 13 14  1  0
 14 15  2  0
 15 16  1  0
 16 17  2  0
  7 18  1  0
 18 19  2  0
 19 20  1  0
 20 21  2  0
 21 22  1  0
 22 23  2  0
 20 24  1  0
 24 25  1  0
 25 26  1  0
 26 27  2  0
 27 28  1  0
 28 29  2  0
 29 30  1  0
 30 31  2  0
 29 32  1  0
 32 33  1  0
 33 34  2  0
 33 35  1  0
  4 36  1  0
 36 37  1  0
 36 38  1  0
 36 39  1  0
  6  1  1  0
 10  5  1  0
 17 12  1  0
 23 18  1  0
 31 26  1  0
M  END
$$$$
